Version 4
SHEET 1 2444 680
WIRE 1136 -368 1088 -368
WIRE 1248 -368 1200 -368
WIRE 1584 -368 1248 -368
WIRE 1584 -352 1584 -368
WIRE 1248 -304 1248 -368
WIRE 1760 -288 1648 -288
WIRE 1792 -288 1760 -288
WIRE 1248 -192 1248 -224
WIRE 1424 -192 1248 -192
WIRE 1584 -192 1584 -240
WIRE 1584 -192 1424 -192
WIRE 960 -176 768 -176
WIRE 1424 -160 1424 -192
WIRE 1968 -112 1920 -112
WIRE 2096 -112 2048 -112
WIRE 848 -80 848 -128
WIRE 768 -64 768 -176
WIRE 816 -64 768 -64
WIRE 960 -48 960 -176
WIRE 960 -48 880 -48
WIRE 1024 -48 1024 -64
WIRE 1024 -48 960 -48
WIRE 1088 -48 1088 -368
WIRE 1088 -48 1024 -48
WIRE 1136 -48 1088 -48
WIRE 1248 -48 1216 -48
WIRE 1584 -48 1248 -48
WIRE 320 -32 320 -48
WIRE 320 -32 304 -32
WIRE 448 -32 448 -48
WIRE 448 -32 432 -32
WIRE 592 -32 592 -48
WIRE 816 -32 592 -32
WIRE 1584 -32 1584 -48
WIRE 320 16 320 -32
WIRE 448 16 448 -32
WIRE 592 16 592 -32
WIRE 1248 16 1248 -48
WIRE 1984 16 1984 -32
WIRE 848 32 848 -16
WIRE 1760 32 1648 32
WIRE 1792 32 1792 -288
WIRE 1792 32 1760 32
WIRE 1856 32 1792 32
WIRE 1920 32 1920 -112
WIRE 1920 32 1856 32
WIRE 1952 32 1920 32
WIRE 2096 48 2096 -112
WIRE 2096 48 2016 48
WIRE 2112 48 2096 48
WIRE 1952 64 1920 64
WIRE 1920 96 1920 64
WIRE 1248 112 1248 80
WIRE 1424 112 1248 112
WIRE 1584 112 1584 80
WIRE 1584 112 1424 112
WIRE 1984 128 1984 80
WIRE 320 144 320 96
WIRE 448 144 448 96
WIRE 448 144 320 144
WIRE 1424 144 1424 112
WIRE 448 160 448 144
WIRE 592 160 592 96
WIRE 1088 256 1088 -48
WIRE 1136 256 1088 256
WIRE 1248 256 1200 256
WIRE 1296 256 1248 256
WIRE 1424 256 1376 256
WIRE 1584 256 1424 256
WIRE 1584 288 1584 256
WIRE 1248 320 1248 256
WIRE 1424 320 1424 256
WIRE 1760 352 1648 352
WIRE 1792 352 1792 32
WIRE 1792 352 1760 352
WIRE 1248 432 1248 400
WIRE 1424 432 1424 384
WIRE 1424 432 1248 432
WIRE 1584 432 1584 400
WIRE 1584 432 1424 432
WIRE 1424 464 1424 432
FLAG 592 160 0
FLAG 448 160 0
FLAG 320 -48 Vp
FLAG 448 -48 Vn
FLAG 848 32 Vn
FLAG 848 -128 Vp
FLAG 592 -48 Vin
IOPIN 592 -48 In
FLAG 1024 -64 1+
IOPIN 1024 -64 In
FLAG 304 -32 V+
IOPIN 304 -32 In
FLAG 432 -32 V-
IOPIN 432 -32 In
FLAG 1984 128 Vn
FLAG 1984 -32 Vp
FLAG 1920 96 0
FLAG 2112 48 Vout
IOPIN 2112 48 In
FLAG 1424 464 0
FLAG 1760 -288 HIGH
IOPIN 1760 -288 In
FLAG 1760 32 LOW
IOPIN 1760 32 In
FLAG 1760 352 MID
IOPIN 1760 352 In
FLAG 1424 144 0
FLAG 1424 -160 0
FLAG 1856 32 2+
IOPIN 1856 32 In
SYMBOL Opamps\\UniversalOpamp2 848 -48 R0
SYMATTR InstName LT1097
SYMBOL voltage 592 0 R0
WINDOW 123 0 0 Left 0
WINDOW 39 0 0 Left 0
WINDOW 3 26 97 Left 2
SYMATTR Value wavefile=audio.wav chan=0
SYMATTR InstName V1
SYMBOL voltage 320 0 R0
WINDOW 123 0 0 Left 0
WINDOW 39 0 0 Left 0
SYMATTR InstName Vp1
SYMATTR Value 5
SYMBOL voltage 448 0 R0
WINDOW 123 0 0 Left 0
WINDOW 39 0 0 Left 0
SYMATTR InstName Vn1
SYMATTR Value -5
SYMBOL cap 1200 -384 R90
WINDOW 0 0 32 VBottom 2
WINDOW 3 32 32 VTop 2
SYMATTR InstName C_high
SYMATTR Value 0.1µ
SYMBOL res 1232 -320 R0
SYMATTR InstName R_high
SYMATTR Value 390
SYMBOL cap 1200 240 R90
WINDOW 0 0 32 VBottom 2
WINDOW 3 32 32 VTop 2
SYMATTR InstName C_high2
SYMATTR Value 0.1µ
SYMBOL res 1232 304 R0
SYMATTR InstName R_high2
SYMATTR Value 6.8k
SYMBOL res 1280 272 R270
WINDOW 0 32 56 VTop 2
WINDOW 3 0 56 VBottom 2
SYMATTR InstName R_low2
SYMATTR Value 39k
SYMBOL cap 1440 384 R180
WINDOW 0 -86 46 Left 2
WINDOW 3 -56 19 Left 2
SYMATTR InstName C_low2
SYMATTR Value 1n
SYMBOL res 1232 -64 R90
WINDOW 0 0 56 VBottom 2
WINDOW 3 32 56 VTop 2
SYMATTR InstName R_low
SYMATTR Value 6.8k
SYMBOL cap 1232 16 R0
WINDOW 0 42 18 Left 2
WINDOW 3 43 46 Left 2
SYMATTR InstName C_low
SYMATTR Value 0.1µ
SYMBOL potentiometer 1600 -256 R180
WINDOW 0 -126 67 Left 2
SYMATTR InstName Rpot_high
SYMATTR SpiceLine R=10k, Val=50
SYMBOL potentiometer 1600 64 R180
WINDOW 0 -118 69 Left 2
SYMATTR InstName Rpot_low
SYMATTR SpiceLine R=10k, Val=50
SYMBOL potentiometer 1600 384 R180
WINDOW 0 -135 70 Left 2
SYMATTR InstName Rpot_band
SYMATTR SpiceLine R=10k, Val=50
SYMBOL res 2064 -128 R90
WINDOW 0 0 56 VBottom 2
WINDOW 3 32 56 VTop 2
SYMATTR InstName RF
SYMATTR Value 2.2k
SYMBOL Opamps\\UniversalOpamp2 1984 48 R0
SYMATTR InstName LT1097
TEXT 744 -208 Left 2 ;Unity Gain Amplifier
TEXT 1176 -536 Left 2 !.ac dec 100 1 100k
TEXT 1056 -584 Left 5 ;Graphic Equaliser
TEXT 1144 -432 Left 2 ;High Pass Filter
TEXT 1144 -120 Left 2 ;Low Pass Filter
TEXT 1144 192 Left 2 ;Band Pass Filter
TEXT 1896 -176 Left 2 ;Summing Amplifier
TEXT 272 -536 Left 2 !.lib ltc.lib
TEXT 272 -504 Left 2 !.tran 5
