Version 4
SHEET 1 1800 680
WIRE 1136 -368 1088 -368
WIRE 1248 -368 1200 -368
WIRE 1248 -304 1248 -368
WIRE 1248 -192 1248 -224
WIRE 1424 -192 1248 -192
WIRE 960 -176 768 -176
WIRE 848 -80 848 -128
WIRE 768 -64 768 -176
WIRE 816 -64 768 -64
WIRE 960 -48 960 -176
WIRE 960 -48 880 -48
WIRE 1024 -48 1024 -64
WIRE 1024 -48 960 -48
WIRE 1088 -48 1088 -368
WIRE 1088 -48 1024 -48
WIRE 1136 -48 1088 -48
WIRE 1248 -48 1216 -48
WIRE 160 -32 160 -48
WIRE 160 -32 144 -32
WIRE 288 -32 288 -48
WIRE 288 -32 272 -32
WIRE 592 -32 592 -48
WIRE 816 -32 592 -32
WIRE 160 16 160 -32
WIRE 288 16 288 -32
WIRE 592 16 592 -32
WIRE 1248 16 1248 -48
WIRE 848 32 848 -16
WIRE 1248 112 1248 80
WIRE 1424 112 1424 -192
WIRE 1424 112 1248 112
WIRE 160 144 160 96
WIRE 288 144 288 96
WIRE 288 144 160 144
WIRE 288 160 288 144
WIRE 592 160 592 96
WIRE 1088 256 1088 -48
WIRE 1136 256 1088 256
WIRE 1248 256 1200 256
WIRE 1296 256 1248 256
WIRE 1424 256 1424 112
WIRE 1424 256 1376 256
WIRE 1248 320 1248 256
WIRE 1424 320 1424 256
WIRE 1248 432 1248 400
WIRE 1424 432 1424 384
WIRE 1424 432 1248 432
WIRE 1424 464 1424 432
FLAG 592 160 0
FLAG 288 160 0
FLAG 160 -48 Vp
FLAG 288 -48 Vn
FLAG 848 32 Vn
FLAG 848 -128 Vp
FLAG 592 -48 +1
IOPIN 592 -48 In
FLAG 1024 -64 +2
IOPIN 1024 -64 In
FLAG 144 -32 V+
IOPIN 144 -32 In
FLAG 272 -32 V-
IOPIN 272 -32 In
FLAG 1424 464 0
SYMBOL Opamps\\UniversalOpamp2 848 -48 R0
SYMATTR InstName LT1097
SYMBOL voltage 592 0 R0
WINDOW 123 0 0 Left 0
WINDOW 39 0 0 Left 0
WINDOW 3 26 97 Left 2
SYMATTR InstName V1
SYMATTR Value wavefile=audio.wav chan=0
SYMBOL voltage 160 0 R0
WINDOW 123 0 0 Left 0
WINDOW 39 0 0 Left 0
SYMATTR InstName Vp1
SYMATTR Value 5
SYMBOL voltage 288 0 R0
WINDOW 123 0 0 Left 0
WINDOW 39 0 0 Left 0
SYMATTR InstName Vn1
SYMATTR Value -5
SYMBOL cap 1200 -384 R90
WINDOW 0 0 32 VBottom 2
WINDOW 3 32 32 VTop 2
SYMATTR InstName C_high
SYMATTR Value 0.1µ
SYMBOL res 1232 -320 R0
SYMATTR InstName R_high
SYMATTR Value 390
SYMBOL cap 1200 240 R90
WINDOW 0 0 32 VBottom 2
WINDOW 3 32 32 VTop 2
SYMATTR InstName C_high2
SYMATTR Value 0.1µ
SYMBOL res 1232 304 R0
SYMATTR InstName R_high2
SYMATTR Value 470
SYMBOL res 1280 272 R270
WINDOW 0 32 56 VTop 2
WINDOW 3 0 56 VBottom 2
SYMATTR InstName R_low2
SYMATTR Value 5.6k
SYMBOL cap 1440 384 R180
WINDOW 0 -86 46 Left 2
WINDOW 3 -56 19 Left 2
SYMATTR InstName C_low2
SYMATTR Value 0.1µ
SYMBOL res 1232 -64 R90
WINDOW 0 0 56 VBottom 2
WINDOW 3 32 56 VTop 2
SYMATTR InstName R_low
SYMATTR Value 6.8k
SYMBOL cap 1232 16 R0
WINDOW 0 42 18 Left 2
WINDOW 3 43 46 Left 2
SYMATTR InstName C_low
SYMATTR Value 0.1µ
TEXT 744 -208 Left 2 ;Unity Gain Amplifier
TEXT 1008 -536 Left 2 !.ac dec 100 1 100k
TEXT 888 -584 Left 5 ;Graphic Equaliser
TEXT 1144 -432 Left 2 ;High Pass Filter
TEXT 1144 -120 Left 2 ;Low Pass Filter
TEXT 1144 192 Left 2 ;Band Pass Filter
