Version 4
SHEET 1 2444 680
WIRE 1136 -240 1088 -240
WIRE 1248 -240 1200 -240
WIRE 1584 -240 1248 -240
WIRE 1248 -224 1248 -240
WIRE 1744 -176 1648 -176
WIRE 1024 -160 832 -160
WIRE 1648 -160 1648 -176
WIRE 1248 -128 1248 -144
WIRE 1424 -128 1248 -128
WIRE 1584 -128 1424 -128
WIRE 1424 -112 1424 -128
WIRE 1856 -96 1808 -96
WIRE 1984 -96 1936 -96
WIRE 832 -64 832 -160
WIRE 880 -64 832 -64
WIRE 1024 -48 1024 -160
WIRE 1024 -48 944 -48
WIRE 1056 -48 1056 -64
WIRE 1056 -48 1024 -48
WIRE 1088 -48 1088 -240
WIRE 1088 -48 1056 -48
WIRE 1136 -48 1088 -48
WIRE 1248 -48 1216 -48
WIRE 1584 -48 1248 -48
WIRE 800 -32 784 -32
WIRE 880 -32 800 -32
WIRE 1584 -32 1584 -48
WIRE 1248 -16 1248 -48
WIRE 800 16 800 -32
WIRE 1744 32 1744 -176
WIRE 1744 32 1648 32
WIRE 1776 32 1776 16
WIRE 1776 32 1744 32
WIRE 1808 32 1808 -96
WIRE 1808 32 1776 32
WIRE 1840 32 1808 32
WIRE 1648 48 1648 32
WIRE 1984 48 1984 -96
WIRE 1984 48 1904 48
WIRE 2000 48 1984 48
WIRE 1840 64 1808 64
WIRE 1248 80 1248 48
WIRE 1424 80 1248 80
WIRE 1584 80 1424 80
WIRE 1808 80 1808 64
WIRE 1424 96 1424 80
WIRE 800 112 800 96
WIRE 1088 160 1088 -48
WIRE 1136 160 1088 160
WIRE 1248 160 1200 160
WIRE 1296 160 1248 160
WIRE 1424 160 1376 160
WIRE 1584 160 1424 160
WIRE 608 176 608 160
WIRE 736 176 736 160
WIRE 880 176 880 160
WIRE 1008 176 1008 160
WIRE 1248 192 1248 160
WIRE 1424 192 1424 160
WIRE 1744 224 1744 32
WIRE 1744 224 1648 224
WIRE 1648 240 1648 224
WIRE 608 272 608 256
WIRE 672 272 608 272
WIRE 736 272 736 256
WIRE 736 272 672 272
WIRE 880 272 880 256
WIRE 944 272 880 272
WIRE 1008 272 1008 256
WIRE 1008 272 944 272
WIRE 1424 272 1424 256
WIRE 1424 272 1248 272
WIRE 1584 272 1424 272
WIRE 672 288 672 272
WIRE 944 288 944 272
WIRE 1424 288 1424 272
FLAG 800 112 0
FLAG 880 160 Vp1
IOPIN 880 160 In
FLAG 1008 160 Vn1
IOPIN 1008 160 In
FLAG 912 -16 Vn1
IOPIN 912 -16 In
FLAG 912 -80 Vp1
IOPIN 912 -80 In
FLAG 784 -32 Vin
IOPIN 784 -32 In
FLAG 1056 -64 1+
IOPIN 1056 -64 In
FLAG 2000 48 Vout
IOPIN 2000 48 In
FLAG 1424 288 0
FLAG 1648 -160 HIGH
IOPIN 1648 -160 In
FLAG 1648 48 LOW
IOPIN 1648 48 In
FLAG 1424 96 0
FLAG 1424 -112 0
FLAG 1776 16 2+
IOPIN 1776 16 In
FLAG 944 288 0
FLAG 1872 16 Vp2
IOPIN 1872 16 In
FLAG 1872 80 Vn2
IOPIN 1872 80 In
FLAG 1808 80 0
FLAG 1648 240 MID
IOPIN 1648 240 In
FLAG 608 160 Vp2
IOPIN 608 160 In
FLAG 736 160 Vn2
IOPIN 736 160 In
FLAG 672 288 0
SYMBOL voltage 800 0 R0
WINDOW 123 0 0 Left 0
WINDOW 39 0 0 Left 0
WINDOW 3 30 83 Left 1
SYMATTR Value wavefile=audio.wav chan=0
SYMATTR InstName V1
SYMBOL voltage 880 160 R0
WINDOW 123 0 0 Left 0
WINDOW 39 0 0 Left 0
SYMATTR InstName V2
SYMATTR Value 5
SYMBOL voltage 1008 160 R0
WINDOW 123 0 0 Left 0
WINDOW 39 0 0 Left 0
SYMATTR InstName V3
SYMATTR Value -5
SYMBOL cap 1200 -256 R90
WINDOW 0 0 32 VBottom 2
WINDOW 3 32 32 VTop 2
SYMATTR InstName C_high
SYMATTR Value 0.1µ
SYMBOL res 1232 -240 R0
SYMATTR InstName R_high
SYMATTR Value 390
SYMBOL cap 1200 144 R90
WINDOW 0 0 32 VBottom 2
WINDOW 3 32 32 VTop 2
SYMATTR InstName C_high2
SYMATTR Value 0.1µ
SYMBOL res 1232 176 R0
SYMATTR InstName R_high2
SYMATTR Value 6.8k
SYMBOL res 1280 176 R270
WINDOW 0 32 56 VTop 2
WINDOW 3 0 56 VBottom 2
SYMATTR InstName R_low2
SYMATTR Value 39k
SYMBOL cap 1440 256 R180
WINDOW 0 -86 46 Left 2
WINDOW 3 -56 19 Left 2
SYMATTR InstName C_low2
SYMATTR Value 1n
SYMBOL res 1232 -64 R90
WINDOW 0 0 56 VBottom 2
WINDOW 3 32 56 VTop 2
SYMATTR InstName R_low
SYMATTR Value 6.8k
SYMBOL cap 1232 -16 R0
WINDOW 0 42 18 Left 2
WINDOW 3 43 46 Left 2
SYMATTR InstName C_low
SYMATTR Value 0.1µ
SYMBOL potentiometer 1600 -144 R180
WINDOW 0 -126 67 Left 2
SYMATTR InstName Rpot_high
SYMATTR SpiceLine R=10k, Val=50
SYMBOL potentiometer 1600 64 R180
WINDOW 0 -118 69 Left 2
SYMATTR InstName Rpot_low
SYMATTR SpiceLine R=10k, Val=50
SYMBOL potentiometer 1600 256 R180
WINDOW 0 -135 70 Left 2
SYMATTR InstName Rpot_band
SYMATTR SpiceLine R=10k, Val=50
SYMBOL res 1952 -112 R90
WINDOW 0 0 56 VBottom 2
WINDOW 3 32 56 VTop 2
SYMATTR InstName RF
SYMATTR Value 12.7k
SYMBOL OpAmps\\opamp2 912 -112 R0
SYMATTR InstName U1
SYMATTR Value LT1097
SYMBOL OpAmps\\opamp2 1872 -16 R0
SYMATTR InstName U2
SYMATTR Value LT1097
SYMBOL voltage 608 160 R0
WINDOW 123 0 0 Left 0
WINDOW 39 0 0 Left 0
SYMATTR InstName V4
SYMATTR Value 5
SYMBOL voltage 736 160 R0
WINDOW 123 0 0 Left 0
WINDOW 39 0 0 Left 0
SYMATTR InstName V5
SYMATTR Value -5
TEXT 808 -192 Left 2 ;Unity Gain Amplifier
TEXT 1592 -368 Left 2 !;ac dec 100 1 100k
TEXT 1088 -352 Left 5 ;Graphic Equaliser
TEXT 1144 -304 Left 2 ;High Pass Filter
TEXT 1136 -104 Left 2 ;Low Pass Filter
TEXT 1144 96 Left 2 ;Band Pass Filter
TEXT 1784 -160 Left 2 ;Summing Amplifier
TEXT 1592 -336 Left 2 !.lib ltc.lib
TEXT 1592 -304 Left 2 !.tran 5
