Version 4
SHEET 1 1448 680
WIRE 1008 -288 976 -288
WIRE 1120 -288 1088 -288
WIRE 1264 -288 1120 -288
WIRE 1120 -256 1120 -288
WIRE 880 -176 688 -176
WIRE 1120 -160 1120 -192
WIRE 768 -80 768 -128
WIRE 688 -64 688 -176
WIRE 736 -64 688 -64
WIRE 288 -48 288 -64
WIRE 288 -48 272 -48
WIRE 416 -48 416 -64
WIRE 416 -48 400 -48
WIRE 880 -48 880 -176
WIRE 880 -48 800 -48
WIRE 912 -48 912 -64
WIRE 912 -48 880 -48
WIRE 976 -48 976 -288
WIRE 976 -48 912 -48
WIRE 992 -48 976 -48
WIRE 1264 -48 1264 -288
WIRE 288 -32 288 -48
WIRE 416 -32 416 -48
WIRE 592 -32 592 -48
WIRE 592 -32 576 -32
WIRE 736 -32 592 -32
WIRE 768 32 768 -16
WIRE 592 48 592 -32
WIRE 288 80 288 48
WIRE 416 80 416 48
WIRE 416 80 288 80
WIRE 416 96 416 80
WIRE 592 160 592 128
FLAG 592 160 0
FLAG 416 96 0
FLAG 288 -64 Vp
FLAG 416 -64 Vn
FLAG 768 32 Vn
FLAG 768 -128 Vp
FLAG 576 -32 W1
IOPIN 576 -32 In
FLAG 592 -48 +1
IOPIN 592 -48 In
FLAG 912 -64 +2
IOPIN 912 -64 In
FLAG 272 -48 V+
IOPIN 272 -48 In
FLAG 400 -48 V-
IOPIN 400 -48 In
FLAG 1120 -160 0
SYMBOL Opamps\\UniversalOpamp2 768 -48 R0
SYMATTR InstName LT1097
SYMBOL voltage 592 32 R0
WINDOW 123 0 0 Left 0
WINDOW 39 0 0 Left 0
SYMATTR InstName V1
SYMATTR Value SINE(0 1 1k)
SYMBOL voltage 288 -48 R0
WINDOW 123 0 0 Left 0
WINDOW 39 0 0 Left 0
SYMATTR InstName Vp1
SYMATTR Value 5
SYMBOL voltage 416 -48 R0
WINDOW 123 0 0 Left 0
WINDOW 39 0 0 Left 0
SYMATTR InstName Vn1
SYMATTR Value -5
SYMBOL Opamps\\UniversalOpamp2 1344 -48 R0
SYMATTR InstName LT1097
SYMBOL res 1104 -304 R90
WINDOW 0 0 56 VBottom 2
WINDOW 3 32 56 VTop 2
SYMATTR InstName R1
SYMBOL cap 1104 -256 R0
SYMATTR InstName C1
TEXT 272 -280 Left 2 !ltc.lib .lib
TEXT 664 -208 Left 2 ;Unit Gain Amplifier
TEXT 624 152 Left 2 ;Replace with .WAV file
