Version 4
SHEET 1 880 680
WIRE 480 0 304 0
WIRE 384 96 384 48
WIRE 304 112 304 0
WIRE 352 112 304 112
WIRE -96 128 -96 112
WIRE -96 128 -112 128
WIRE 32 128 32 112
WIRE 32 128 16 128
WIRE 480 128 480 0
WIRE 480 128 416 128
WIRE 496 128 480 128
WIRE -96 144 -96 128
WIRE 32 144 32 128
WIRE 208 144 192 144
WIRE 352 144 208 144
WIRE 384 208 384 160
WIRE 208 224 208 144
WIRE -96 256 -96 224
WIRE 32 256 32 224
WIRE 32 256 -96 256
WIRE 32 272 32 256
WIRE 208 336 208 304
FLAG 208 336 0
FLAG 32 272 0
FLAG -96 112 Vp
FLAG 32 112 Vn
FLAG 384 208 Vn
FLAG 384 48 Vp
FLAG 192 144 +1
IOPIN 192 144 In
FLAG 496 128 +2
IOPIN 496 128 In
FLAG -112 128 V+
IOPIN -112 128 In
FLAG 16 128 V-
IOPIN 16 128 In
SYMBOL voltage 208 208 R0
WINDOW 123 0 0 Left 0
WINDOW 39 0 0 Left 0
SYMATTR InstName V1
SYMATTR Value wavefile=one_more_time_short.wav chan=0
SYMBOL voltage -96 128 R0
WINDOW 123 0 0 Left 0
WINDOW 39 0 0 Left 0
SYMATTR InstName Vp1
SYMATTR Value 5
SYMBOL voltage 32 128 R0
WINDOW 123 0 0 Left 0
WINDOW 39 0 0 Left 0
SYMATTR InstName Vn1
SYMATTR Value -5
SYMBOL Opamps\\opamp2 384 64 R0
SYMATTR InstName U1
SYMATTR Value LT1097
TEXT -16 -16 Left 2 !.tran 5
TEXT 128 -48 Left 2 ;Unity-Gain Amplifier
TEXT -16 -48 Left 2 !.lib ltc.lib
